
     RDKit          3D

  3  2  0  0  0  0  0  0  0  0999 V2000
   44.2110   39.7830   80.5020 C   0  0  0  0  0  0  0  0  0  0  0  0
   43.7060   41.1600   80.1650 C   0  0  0  0  0  0  0  0  0  0  0  0
   44.7760   42.0200   80.0440 O   0  0  0  0  0  0  0  0  0  0  0  0
  1  2  1  0
  2  3  1  0
M  END
>  <meeko>  (1) 
{"is_sidechain": false}

$$$$
